/*--------------------------------*- C++ -*----------------------------------*\
| =========                 |                                                 |
| \\      /  F ield         | OpenFOAM: The Open Source CFD Toolbox           |
|  \\    /   O peration     | Version:  v2012                                 |
|   \\  /    A nd           | Website:  www.openfoam.com                      |
|    \\/     M anipulation  |                                                 |
\*---------------------------------------------------------------------------*/
FoamFile
{
    version     2.0;
    format      ascii;
    class       polyBoundaryMesh;
    location    "constant/polyMesh";
    object      boundary;
}
// * * * * * * * * * * * * * * * * * * * * * * * * * * * * * * * * * * * * * //

6
(
    inlet
    {
        type            patch;
        nFaces          16;
        startFace       474;
    }
    outlet
    {
        type            patch;
        nFaces          10;
        startFace       490;
    }
    bottom
    {
        type            symmetryPlane;
        inGroups        1(symmetryPlane);
        nFaces          6;
        startFace       500;
    }
    top
    {
        type            symmetryPlane;
        inGroups        1(symmetryPlane);
        nFaces          22;
        startFace       506;
    }
    obstacle
    {
        type            patch;
        nFaces          22;
        startFace       528;
    }
    defaultFaces
    {
        type            empty;
        inGroups        1(empty);
        nFaces          512;
        startFace       550;
    }
)

// ************************************************************************* //
