/*--------------------------------*- C++ -*----------------------------------*\
| =========                 |                                                 |
| \\      /  F ield         | OpenFOAM: The Open Source CFD Toolbox           |
|  \\    /   O peration     | Version:  2106                                  |
|   \\  /    A nd           | Website:  www.openfoam.com                      |
|    \\/     M anipulation  |                                                 |
\*---------------------------------------------------------------------------*/
FoamFile
{
    version     2.0;
    format      ascii;
    arch        "LSB;label=32;scalar=64";
    class       polyBoundaryMesh;
    location    "constant/polyMesh";
    object      boundary;
}
// * * * * * * * * * * * * * * * * * * * * * * * * * * * * * * * * * * * * * //

5
(
    top
    {
        type            wall;
        inGroups        1(wall);
        nFaces          625;
        startFace       45000;
    }
    bottom
    {
        type            wall;
        inGroups        1(wall);
        nFaces          625;
        startFace       45625;
    }
    frontAndBack
    {
        type            wall;
        inGroups        1(wall);
        nFaces          1250;
        startFace       46250;
    }
    left
    {
        type            wall;
        inGroups        1(wall);
        nFaces          625;
        startFace       47500;
    }
    right
    {
        type            wall;
        inGroups        1(wall);
        nFaces          625;
        startFace       48125;
    }
)

// ************************************************************************* //
