/*--------------------------------*- C++ -*----------------------------------*\
  =========                 |
  \\      /  F ield         | OpenFOAM: The Open Source CFD Toolbox
   \\    /   O peration     | Website:  https://openfoam.org
    \\  /    A nd           | Version:  6
     \\/     M anipulation  |
\*---------------------------------------------------------------------------*/
FoamFile
{
    version     2.0;
    format      ascii;
    class       dictionary;
    object      blockMeshDict;
}
// * * * * * * * * * * * * * * * * * * * * * * * * * * * * * * * * * * * * * //

scale 1;

  xmin 0.0;
  ymin 0.0;
  zmin 0.0;
  
  xmax 1.0;  
  ymax 1.0;
  zmax 1.0;

vertices
(
($xmin  $ymin  $zmin)
($xmax  $ymin  $zmin)  
($xmax  $ymax  $zmin)  
($xmin  $ymax  $zmin) 
($xmin  $ymin  $zmax)  
($xmax  $ymin  $zmax) 
($xmax  $ymax  $zmax)
($xmin  $ymax  $zmax)
);


blocks
(   
	 hex (0 1 2 3 4 5 6 7) (25 25 25) simpleGrading (1 1 1) 
);


edges
(

);

boundary
(
    top
    {
        type wall;
        faces
        (
            (3 7 6 2)  
        );
    }

    bottom
    {
        type wall;
        faces
        (
            (1 5 4 0)
        );
    }

    frontAndBack
    {
        type wall;
        faces
        (
            (0 4 7 3)
            (2 6 5 1)  
        );
    }

   left
    {
        type wall;
        faces
        (
  	    	(0 3 2 1)
        );
    }

    right
    {
        type wall;
        faces
        (
            (4 5 6 7)
        );
    }





);

mergePatchPairs
(
);

// ************************************************************************* //
